7
Coordinates from ORCA-job orca
  C   -1.47679652344391      0.18299393456681      1.17678770952746
  H   -0.97558490806616     -0.79026064989080      1.24095074589930
  H   -1.41609422265716      0.74270321918651      2.12209020117042
  H   -2.53460229737973      0.08620592880013      0.89020405654492
  N   -0.82773723493968      0.98609422697079      0.15764411284851
  O   -1.44101507229860      2.38251270391258     -0.04533827511434
  O   0.14892770478525      0.63419623445399     -0.53341825987626
