7
Coordinates from ORCA-job orca
  C   -1.56383665322453      0.19318297168774      1.21796570886791
  H   -0.73996638990096     -0.26847381614462      1.78234454771724
  H   -2.25624825114126      0.73917461161618      1.86986091738622
  H   -2.07373982673013     -0.58679377317440      0.63301385348771
  N   -0.96998019845064      1.12044322617521      0.27287076934506
  O   -1.20878574091054      2.34263557659240      0.20568595047906
  O   0.03237594535805      0.48465704324750     -0.70617676328320
